data_SrTiO3
_cell_length_a 3.905
_cell_length_b 3.905
_cell_length_c 3.905
_cell_angle_alpha 90.0
_cell_angle_beta 90.0
_cell_angle_gamma 90.0
_space_group_name_H-M_alt 'P m -3 m'
_space_group_IT_number 221
loop_
_atom_site_label
_atom_site_fract_x
_atom_site_fract_y
_atom_site_fract_z
Sr1 0.0 0.0 0.0
Ti1 0.5 0.5 0.5
O1 0.5 0.5 0.0
O2 0.5 0.0 0.5
O3 0.0 0.5 0.5
