data_TiO2
_cell_length_a 4.59
_cell_length_b 4.59
_cell_length_c 2.96
_cell_angle_alpha 90.0
_cell_angle_beta 90.0
_cell_angle_gamma 90.0
_space_group_name_H-M_alt 'P 42/m n m'
_space_group_IT_number 136
loop_
_atom_site_label
_atom_site_fract_x
_atom_site_fract_y
_atom_site_fract_z
Ti1 0.0 0.0 0.0
Ti2 0.5 0.5 0.5
O1 0.32 0.32 0.0
O2 0.68 0.68 0.5
